


 35 37  0  0  0  0  0  0  0  0999 V2000
  -17.5273  -11.7698  -11.0588 C   0  0  0  0  0  0  0  0  0  0  0  0
  -17.3119  -12.0228   -9.6852 O   0  0  0  0  0  0  0  0  0  0  0  0
  -16.5526  -10.9534   -9.1691 C   0  0  0  0  0  0  0  0  0  0  0  0
  -16.7755   -9.7407  -10.0636 C   0  0  0  0  0  0  0  0  0  0  0  0
  -15.6590   -8.8901  -10.0698 O   0  0  0  0  0  0  0  0  0  0  0  0
  -17.0085  -10.3730  -11.4153 C   0  0  0  0  0  0  0  0  0  0  0  0
  -15.8058  -10.4884  -12.1360 O   0  0  0  0  0  0  0  0  0  0  0  0
  -15.6991   -8.3620   -9.2303 H   0  0  0  0  0  0  0  0  0  0  0  0
  -15.6713   -9.6262  -12.6103 H   0  0  0  0  0  0  0  0  0  0  0  0
  -23.4447  -13.0971  -11.6653 N   0  0  0  0  0  0  0  0  0  0  0  0
  -22.1111  -13.4146  -11.2648 C   0  0  0  0  0  0  0  0  0  0  0  0
  -21.8292  -14.6204  -10.6881 N   0  0  0  0  0  0  0  0  0  0  0  0
  -20.5534  -14.9464  -10.3034 C   0  0  0  0  0  0  0  0  0  0  0  0
  -19.5255  -14.0663  -10.4952 N   0  0  0  0  0  0  0  0  0  0  0  0
  -19.8082  -12.8738  -11.0687 C   0  0  0  0  0  0  0  0  0  0  0  0
  -21.0573  -12.5277  -11.4564 C   0  0  0  0  0  0  0  0  0  0  0  0
  -21.0616  -11.2962  -11.9977 N   0  0  0  0  0  0  0  0  0  0  0  0
  -19.7524  -10.9273  -11.9166 C   0  0  0  0  0  0  0  0  0  0  0  0
  -18.9565  -11.8819  -11.3644 N   0  0  0  0  0  0  0  0  0  0  0  0
  -23.6659  -12.1807  -12.1203 H   0  0  0  0  0  0  0  0  0  0  0  0
  -24.2192  -13.7769  -11.4973 H   0  0  0  0  0  0  0  0  0  0  0  0
  -16.9564  -10.6797   -7.7172 C   0  0  0  0  0  0  0  0  0  0  0  0
  -17.3250  -11.8923   -7.1035 O   0  0  0  0  0  0  0  0  0  0  0  0
  -16.6510  -11.9371   -5.5373 P   0  0  0  0  0  0  0  0  0  0  0  0
  -15.1900  -11.5501   -5.5993 O   0  0  0  0  0  0  0  0  0  0  0  0
  -16.7551  -13.5174   -4.9395 O   0  0  0  0  0  0  0  0  0  0  0  0
  -17.4606  -10.8512   -4.5031 O   0  0  0  0  0  0  0  0  0  0  0  0
  -18.8025  -11.6661   -3.8437 P   0  0  0  0  0  0  0  0  0  0  0  0
  -19.4624  -12.4973   -4.9227 O   0  0  0  0  0  0  0  0  0  0  0  0
  -18.2356  -12.6968   -2.6271 O   0  0  0  0  0  0  0  0  0  0  0  0
  -19.9130  -10.5452   -3.1970 O   0  0  0  0  0  0  0  0  0  0  0  0
  -20.0655   -9.2380   -4.2822 P   0  0  0  0  0  0  0  0  0  0  0  0
  -18.8434   -8.1215   -3.9343 O   0  0  0  0  0  0  0  0  0  0  0  0
  -19.8965   -9.7242   -5.8968 O   0  0  0  0  0  0  0  0  0  0  0  0
  -21.5946   -8.4593   -4.0739 S   0  0  0  0  0  0  0  0  0  0  0  0
  1 19  1  0  0  0
  1  2  1  0  0  0
  1  6  1  0  0  0
  2  3  1  0  0  0
  3 22  1  0  0  0
  3  4  1  0  0  0
  4  5  1  0  0  0
  4  6  1  0  0  0
  5  8  1  0  0  0
  6  7  1  0  0  0
  7  9  1  0  0  0
 10 11  1  0  0  0
 10 20  1  0  0  0
 10 21  1  0  0  0
 11 12  2  0  0  0
 11 16  1  0  0  0
 12 13  1  0  0  0
 13 14  2  0  0  0
 14 15  1  0  0  0
 15 16  2  0  0  0
 15 19  1  0  0  0
 16 17  1  0  0  0
 17 18  2  0  0  0
 18 19  1  0  0  0
 22 23  1  0  0  0
 23 24  1  0  0  0
 24 25  2  0  0  0
 24 26  1  0  0  0
 24 27  1  0  0  0
 27 28  1  0  0  0
 28 29  2  0  0  0
 28 30  1  0  0  0
 28 31  1  0  0  0
 31 32  1  0  0  0
 32 33  1  0  0  0
 32 34  1  0  0  0
 32 35  2  0  0  0
M  CHG 1  26  -1
M  CHG 1  30  -1
M  CHG 1  33  -1
M  CHG 1  34  -1
M  END
> <COMPND>
../0-casp/DBelp1.pdb

> <AUTHOR>
GENERATED BY OPEN BABEL 3.1.0

> <MASTER>
        0    0    0    0    0    0    0    0   35    0   35    0

> <minimizedAffinity>
-8.75869

> <CNNscore>
0.4539219737

> <CNNaffinity>
4.5168576241

> <CNN_VS>
2.0503008366

> <CNNaffinity_variance>
0.3380903900

$$$$



 35 37  0  0  0  0  0  0  0  0999 V2000
  -21.6388  -11.9098  -10.8659 C   0  0  0  0  0  0  0  0  0  0  0  0
  -21.7425  -11.0858   -9.7225 O   0  0  0  0  0  0  0  0  0  0  0  0
  -22.9258  -11.4437   -9.0454 C   0  0  0  0  0  0  0  0  0  0  0  0
  -23.2757  -12.8755   -9.4303 C   0  0  0  0  0  0  0  0  0  0  0  0
  -24.6600  -13.1017   -9.3782 O   0  0  0  0  0  0  0  0  0  0  0  0
  -22.7426  -12.9720  -10.8402 C   0  0  0  0  0  0  0  0  0  0  0  0
  -23.7344  -12.6418  -11.7818 O   0  0  0  0  0  0  0  0  0  0  0  0
  -24.8911  -13.2315   -8.4216 H   0  0  0  0  0  0  0  0  0  0  0  0
  -24.2457  -13.4735  -11.9639 H   0  0  0  0  0  0  0  0  0  0  0  0
  -16.6039  -15.3140  -10.4120 N   0  0  0  0  0  0  0  0  0  0  0  0
  -17.9294  -14.9563  -10.0186 C   0  0  0  0  0  0  0  0  0  0  0  0
  -18.5649  -15.6406   -9.0217 N   0  0  0  0  0  0  0  0  0  0  0  0
  -19.8351  -15.3073   -8.6250 C   0  0  0  0  0  0  0  0  0  0  0  0
  -20.4973  -14.2702   -9.2200 N   0  0  0  0  0  0  0  0  0  0  0  0
  -19.8638  -13.5934  -10.2056 C   0  0  0  0  0  0  0  0  0  0  0  0
  -18.6122  -13.9022  -10.6158 C   0  0  0  0  0  0  0  0  0  0  0  0
  -18.2191  -13.0761  -11.6020 N   0  0  0  0  0  0  0  0  0  0  0  0
  -19.2973  -12.2575  -11.7564 C   0  0  0  0  0  0  0  0  0  0  0  0
  -20.3167  -12.5416  -10.9022 N   0  0  0  0  0  0  0  0  0  0  0  0
  -16.1055  -14.7856  -11.1658 H   0  0  0  0  0  0  0  0  0  0  0  0
  -16.1199  -16.1186   -9.9554 H   0  0  0  0  0  0  0  0  0  0  0  0
  -22.7308  -11.2851   -7.5345 C   0  0  0  0  0  0  0  0  0  0  0  0
  -22.1404  -12.4551   -7.0193 O   0  0  0  0  0  0  0  0  0  0  0  0
  -20.6511  -12.0415   -6.2980 P   0  0  0  0  0  0  0  0  0  0  0  0
  -19.6914  -11.5461   -7.3571 O   0  0  0  0  0  0  0  0  0  0  0  0
  -19.9839  -13.4237   -5.5839 O   0  0  0  0  0  0  0  0  0  0  0  0
  -20.8661  -10.8123   -5.1374 O   0  0  0  0  0  0  0  0  0  0  0  0
  -19.3596  -10.5311   -4.3951 P   0  0  0  0  0  0  0  0  0  0  0  0
  -18.2944  -11.3396   -5.1037 O   0  0  0  0  0  0  0  0  0  0  0  0
  -19.0001   -8.8858   -4.5605 O   0  0  0  0  0  0  0  0  0  0  0  0
  -19.4271  -10.9571   -2.7453 O   0  0  0  0  0  0  0  0  0  0  0  0
  -17.8458  -11.2969   -2.2031 P   0  0  0  0  0  0  0  0  0  0  0  0
  -17.4391  -12.8569   -2.7150 O   0  0  0  0  0  0  0  0  0  0  0  0
  -16.7059  -10.2156   -2.8379 O   0  0  0  0  0  0  0  0  0  0  0  0
  -17.7802  -11.2523   -0.4763 S   0  0  0  0  0  0  0  0  0  0  0  0
  1 19  1  0  0  0
  1  2  1  0  0  0
  1  6  1  0  0  0
  2  3  1  0  0  0
  3 22  1  0  0  0
  3  4  1  0  0  0
  4  5  1  0  0  0
  4  6  1  0  0  0
  5  8  1  0  0  0
  6  7  1  0  0  0
  7  9  1  0  0  0
 10 11  1  0  0  0
 10 20  1  0  0  0
 10 21  1  0  0  0
 11 12  2  0  0  0
 11 16  1  0  0  0
 12 13  1  0  0  0
 13 14  2  0  0  0
 14 15  1  0  0  0
 15 16  2  0  0  0
 15 19  1  0  0  0
 16 17  1  0  0  0
 17 18  2  0  0  0
 18 19  1  0  0  0
 22 23  1  0  0  0
 23 24  1  0  0  0
 24 25  2  0  0  0
 24 26  1  0  0  0
 24 27  1  0  0  0
 27 28  1  0  0  0
 28 29  2  0  0  0
 28 30  1  0  0  0
 28 31  1  0  0  0
 31 32  1  0  0  0
 32 33  1  0  0  0
 32 34  1  0  0  0
 32 35  2  0  0  0
M  CHG 1  26  -1
M  CHG 1  30  -1
M  CHG 1  33  -1
M  CHG 1  34  -1
M  END
> <COMPND>
../0-casp/DBelp1.pdb

> <AUTHOR>
GENERATED BY OPEN BABEL 3.1.0

> <MASTER>
        0    0    0    0    0    0    0    0   35    0   35    0

> <minimizedAffinity>
-9.29387

> <CNNscore>
0.4168147147

> <CNNaffinity>
4.6692023277

> <CNN_VS>
1.9461922646

> <CNNaffinity_variance>
0.4125081003

$$$$



 35 37  0  0  0  0  0  0  0  0999 V2000
  -21.8683  -11.4965  -10.7830 C   0  0  0  0  0  0  0  0  0  0  0  0
  -21.8582  -10.9820   -9.4669 O   0  0  0  0  0  0  0  0  0  0  0  0
  -22.4230  -11.9595   -8.6230 C   0  0  0  0  0  0  0  0  0  0  0  0
  -22.2616  -13.3160   -9.2970 C   0  0  0  0  0  0  0  0  0  0  0  0
  -23.2871  -14.2013   -8.9302 O   0  0  0  0  0  0  0  0  0  0  0  0
  -22.3241  -12.9592  -10.7633 C   0  0  0  0  0  0  0  0  0  0  0  0
  -23.6405  -13.0476  -11.2518 O   0  0  0  0  0  0  0  0  0  0  0  0
  -23.0557  -14.5468   -8.0289 H   0  0  0  0  0  0  0  0  0  0  0  0
  -23.7845  -13.9931  -11.5197 H   0  0  0  0  0  0  0  0  0  0  0  0
  -16.1264  -10.2913  -12.4331 N   0  0  0  0  0  0  0  0  0  0  0  0
  -17.3207  -10.0037  -11.7046 C   0  0  0  0  0  0  0  0  0  0  0  0
  -17.3879   -8.9112  -10.8873 N   0  0  0  0  0  0  0  0  0  0  0  0
  -18.5284   -8.6145  -10.1852 C   0  0  0  0  0  0  0  0  0  0  0  0
  -19.6350   -9.4095  -10.2927 N   0  0  0  0  0  0  0  0  0  0  0  0
  -19.5653  -10.4894  -11.1049 C   0  0  0  0  0  0  0  0  0  0  0  0
  -18.4529  -10.8045  -11.8074 C   0  0  0  0  0  0  0  0  0  0  0  0
  -18.6510  -11.9188  -12.5344 N   0  0  0  0  0  0  0  0  0  0  0  0
  -19.9379  -12.2500  -12.2329 C   0  0  0  0  0  0  0  0  0  0  0  0
  -20.5298  -11.3820  -11.3694 N   0  0  0  0  0  0  0  0  0  0  0  0
  -16.0720  -11.1189  -13.0717 H   0  0  0  0  0  0  0  0  0  0  0  0
  -15.2866   -9.6801  -12.3267 H   0  0  0  0  0  0  0  0  0  0  0  0
  -21.7481  -11.9156   -7.2487 C   0  0  0  0  0  0  0  0  0  0  0  0
  -21.6230  -13.2277   -6.7532 O   0  0  0  0  0  0  0  0  0  0  0  0
  -20.0047  -13.4777   -6.2758 P   0  0  0  0  0  0  0  0  0  0  0  0
  -19.0769  -12.7261   -7.2045 O   0  0  0  0  0  0  0  0  0  0  0  0
  -19.6465  -15.1281   -6.3914 O   0  0  0  0  0  0  0  0  0  0  0  0
  -19.7543  -12.9206   -4.6848 O   0  0  0  0  0  0  0  0  0  0  0  0
  -18.5981  -13.9361   -3.9559 P   0  0  0  0  0  0  0  0  0  0  0  0
  -19.2621  -15.2304   -3.5379 O   0  0  0  0  0  0  0  0  0  0  0  0
  -17.4084  -14.2778   -5.1099 O   0  0  0  0  0  0  0  0  0  0  0  0
  -17.9036  -13.1631   -2.6039 O   0  0  0  0  0  0  0  0  0  0  0  0
  -17.0037  -14.3112   -1.7198 P   0  0  0  0  0  0  0  0  0  0  0  0
  -18.0889  -15.2619   -0.8368 O   0  0  0  0  0  0  0  0  0  0  0  0
  -16.1027  -15.3321   -2.7287 O   0  0  0  0  0  0  0  0  0  0  0  0
  -15.9422  -13.5175   -0.6102 S   0  0  0  0  0  0  0  0  0  0  0  0
  1 19  1  0  0  0
  1  2  1  0  0  0
  1  6  1  0  0  0
  2  3  1  0  0  0
  3 22  1  0  0  0
  3  4  1  0  0  0
  4  5  1  0  0  0
  4  6  1  0  0  0
  5  8  1  0  0  0
  6  7  1  0  0  0
  7  9  1  0  0  0
 10 11  1  0  0  0
 10 20  1  0  0  0
 10 21  1  0  0  0
 11 12  2  0  0  0
 11 16  1  0  0  0
 12 13  1  0  0  0
 13 14  2  0  0  0
 14 15  1  0  0  0
 15 16  2  0  0  0
 15 19  1  0  0  0
 16 17  1  0  0  0
 17 18  2  0  0  0
 18 19  1  0  0  0
 22 23  1  0  0  0
 23 24  1  0  0  0
 24 25  2  0  0  0
 24 26  1  0  0  0
 24 27  1  0  0  0
 27 28  1  0  0  0
 28 29  2  0  0  0
 28 30  1  0  0  0
 28 31  1  0  0  0
 31 32  1  0  0  0
 32 33  1  0  0  0
 32 34  1  0  0  0
 32 35  2  0  0  0
M  CHG 1  26  -1
M  CHG 1  30  -1
M  CHG 1  33  -1
M  CHG 1  34  -1
M  END
> <COMPND>
../0-casp/DBelp1.pdb

> <AUTHOR>
GENERATED BY OPEN BABEL 3.1.0

> <MASTER>
        0    0    0    0    0    0    0    0   35    0   35    0

> <minimizedAffinity>
-9.47751

> <CNNscore>
0.2339540571

> <CNNaffinity>
4.4071097374

> <CNN_VS>
1.0310611725

> <CNNaffinity_variance>
0.2843158543

$$$$



 35 37  0  0  0  0  0  0  0  0999 V2000
  -21.6404  -11.7415  -10.1840 C   0  0  0  0  0  0  0  0  0  0  0  0
  -21.4833  -11.6900   -8.7805 O   0  0  0  0  0  0  0  0  0  0  0  0
  -22.1709  -12.7924   -8.2341 C   0  0  0  0  0  0  0  0  0  0  0  0
  -22.2765  -13.8644   -9.3112 C   0  0  0  0  0  0  0  0  0  0  0  0
  -23.4226  -14.6569   -9.1418 O   0  0  0  0  0  0  0  0  0  0  0  0
  -22.3410  -13.0456  -10.5787 C   0  0  0  0  0  0  0  0  0  0  0  0
  -23.6732  -12.7726  -10.9396 O   0  0  0  0  0  0  0  0  0  0  0  0
  -23.2149  -15.3069   -8.4210 H   0  0  0  0  0  0  0  0  0  0  0  0
  -23.9903  -13.5469  -11.4746 H   0  0  0  0  0  0  0  0  0  0  0  0
  -16.0817  -10.4206  -12.3054 N   0  0  0  0  0  0  0  0  0  0  0  0
  -17.2901  -10.0805  -11.6245 C   0  0  0  0  0  0  0  0  0  0  0  0
  -17.4627   -8.8305  -11.1013 N   0  0  0  0  0  0  0  0  0  0  0  0
  -18.6191   -8.4828  -10.4504 C   0  0  0  0  0  0  0  0  0  0  0  0
  -19.6359   -9.3858  -10.3141 N   0  0  0  0  0  0  0  0  0  0  0  0
  -19.4623  -10.6223  -10.8355 C   0  0  0  0  0  0  0  0  0  0  0  0
  -18.3319  -10.9905  -11.4812 C   0  0  0  0  0  0  0  0  0  0  0  0
  -18.4196  -12.2654  -11.9011 N   0  0  0  0  0  0  0  0  0  0  0  0
  -19.6598  -12.6374  -11.4767 C   0  0  0  0  0  0  0  0  0  0  0  0
  -20.3295  -11.6444  -10.8325 N   0  0  0  0  0  0  0  0  0  0  0  0
  -15.9478  -11.3721  -12.7207 H   0  0  0  0  0  0  0  0  0  0  0  0
  -15.3104   -9.7215  -12.3868 H   0  0  0  0  0  0  0  0  0  0  0  0
  -21.4385  -13.2987   -6.9878 C   0  0  0  0  0  0  0  0  0  0  0  0
  -20.4416  -14.2138   -7.3774 O   0  0  0  0  0  0  0  0  0  0  0  0
  -18.9175  -13.5643   -6.9718 P   0  0  0  0  0  0  0  0  0  0  0  0
  -18.4394  -12.6536   -8.0809 O   0  0  0  0  0  0  0  0  0  0  0  0
  -17.8060  -14.8308   -6.8105 O   0  0  0  0  0  0  0  0  0  0  0  0
  -19.0128  -12.6637   -5.5281 O   0  0  0  0  0  0  0  0  0  0  0  0
  -17.6548  -13.0592   -4.5799 P   0  0  0  0  0  0  0  0  0  0  0  0
  -17.5247  -12.0593   -3.4513 O   0  0  0  0  0  0  0  0  0  0  0  0
  -17.9125  -14.5973   -3.9229 O   0  0  0  0  0  0  0  0  0  0  0  0
  -16.2451  -13.0563   -5.5394 O   0  0  0  0  0  0  0  0  0  0  0  0
  -15.6268  -11.4676   -5.5982 P   0  0  0  0  0  0  0  0  0  0  0  0
  -16.8991  -10.4231   -5.9868 O   0  0  0  0  0  0  0  0  0  0  0  0
  -14.9744  -10.9799   -4.1121 O   0  0  0  0  0  0  0  0  0  0  0  0
  -14.4173  -11.3387   -6.8264 S   0  0  0  0  0  0  0  0  0  0  0  0
  1 19  1  0  0  0
  1  2  1  0  0  0
  1  6  1  0  0  0
  2  3  1  0  0  0
  3 22  1  0  0  0
  3  4  1  0  0  0
  4  5  1  0  0  0
  4  6  1  0  0  0
  5  8  1  0  0  0
  6  7  1  0  0  0
  7  9  1  0  0  0
 10 11  1  0  0  0
 10 20  1  0  0  0
 10 21  1  0  0  0
 11 12  2  0  0  0
 11 16  1  0  0  0
 12 13  1  0  0  0
 13 14  2  0  0  0
 14 15  1  0  0  0
 15 16  2  0  0  0
 15 19  1  0  0  0
 16 17  1  0  0  0
 17 18  2  0  0  0
 18 19  1  0  0  0
 22 23  1  0  0  0
 23 24  1  0  0  0
 24 25  2  0  0  0
 24 26  1  0  0  0
 24 27  1  0  0  0
 27 28  1  0  0  0
 28 29  2  0  0  0
 28 30  1  0  0  0
 28 31  1  0  0  0
 31 32  1  0  0  0
 32 33  1  0  0  0
 32 34  1  0  0  0
 32 35  2  0  0  0
M  CHG 1  26  -1
M  CHG 1  30  -1
M  CHG 1  33  -1
M  CHG 1  34  -1
M  END
> <COMPND>
../0-casp/DBelp1.pdb

> <AUTHOR>
GENERATED BY OPEN BABEL 3.1.0

> <MASTER>
        0    0    0    0    0    0    0    0   35    0   35    0

> <minimizedAffinity>
-8.06731

> <CNNscore>
0.2295001894

> <CNNaffinity>
4.3399596214

> <CNN_VS>
0.9960215688

> <CNNaffinity_variance>
0.5549923778

$$$$



 35 37  0  0  0  0  0  0  0  0999 V2000
  -18.3779  -12.8906  -11.2525 C   0  0  0  0  0  0  0  0  0  0  0  0
  -19.6800  -13.4303  -11.3541 O   0  0  0  0  0  0  0  0  0  0  0  0
  -19.8026  -14.4346  -10.3728 C   0  0  0  0  0  0  0  0  0  0  0  0
  -18.7936  -14.1428   -9.2695 C   0  0  0  0  0  0  0  0  0  0  0  0
  -18.3685  -15.3193   -8.6328 O   0  0  0  0  0  0  0  0  0  0  0  0
  -17.6697  -13.4751  -10.0261 C   0  0  0  0  0  0  0  0  0  0  0  0
  -16.7088  -14.4149  -10.4419 O   0  0  0  0  0  0  0  0  0  0  0  0
  -19.0881  -15.5754   -7.9988 H   0  0  0  0  0  0  0  0  0  0  0  0
  -16.0744  -14.5303   -9.6865 H   0  0  0  0  0  0  0  0  0  0  0  0
  -17.6253   -6.8458  -11.0557 N   0  0  0  0  0  0  0  0  0  0  0  0
  -17.1257   -8.1837  -11.0619 C   0  0  0  0  0  0  0  0  0  0  0  0
  -15.7822   -8.4222  -10.9972 N   0  0  0  0  0  0  0  0  0  0  0  0
  -15.2838   -9.7003  -10.9947 C   0  0  0  0  0  0  0  0  0  0  0  0
  -16.1280  -10.7735  -11.0520 N   0  0  0  0  0  0  0  0  0  0  0  0
  -17.4582  -10.5334  -11.1139 C   0  0  0  0  0  0  0  0  0  0  0  0
  -17.9753   -9.2833  -11.1184 C   0  0  0  0  0  0  0  0  0  0  0  0
  -19.3182   -9.3259  -11.1825 N   0  0  0  0  0  0  0  0  0  0  0  0
  -19.5758  -10.6636  -11.2122 C   0  0  0  0  0  0  0  0  0  0  0  0
  -18.4538  -11.4300  -11.1560 N   0  0  0  0  0  0  0  0  0  0  0  0
  -18.6540   -6.6556  -11.0913 H   0  0  0  0  0  0  0  0  0  0  0  0
  -16.9637   -6.0386  -11.0259 H   0  0  0  0  0  0  0  0  0  0  0  0
  -21.2393  -14.4739   -9.8431 C   0  0  0  0  0  0  0  0  0  0  0  0
  -21.2411  -14.1053   -8.4840 O   0  0  0  0  0  0  0  0  0  0  0  0
  -22.5321  -13.0237   -8.2147 P   0  0  0  0  0  0  0  0  0  0  0  0
  -23.8433  -13.7774   -8.2424 O   0  0  0  0  0  0  0  0  0  0  0  0
  -22.5553  -11.8754   -9.4583 O   0  0  0  0  0  0  0  0  0  0  0  0
  -22.3718  -12.2616   -6.6989 O   0  0  0  0  0  0  0  0  0  0  0  0
  -20.7381  -11.8194   -6.5113 P   0  0  0  0  0  0  0  0  0  0  0  0
  -19.9293  -13.0419   -6.1345 O   0  0  0  0  0  0  0  0  0  0  0  0
  -20.1861  -11.2340   -8.0000 O   0  0  0  0  0  0  0  0  0  0  0  0
  -20.5873  -10.6165   -5.3120 O   0  0  0  0  0  0  0  0  0  0  0  0
  -18.9669  -10.5741   -4.7806 P   0  0  0  0  0  0  0  0  0  0  0  0
  -17.9722  -10.9367   -6.0997 O   0  0  0  0  0  0  0  0  0  0  0  0
  -18.5279   -9.0483   -4.1881 O   0  0  0  0  0  0  0  0  0  0  0  0
  -18.7055  -11.7636   -3.5539 S   0  0  0  0  0  0  0  0  0  0  0  0
  1 19  1  0  0  0
  1  2  1  0  0  0
  1  6  1  0  0  0
  2  3  1  0  0  0
  3 22  1  0  0  0
  3  4  1  0  0  0
  4  5  1  0  0  0
  4  6  1  0  0  0
  5  8  1  0  0  0
  6  7  1  0  0  0
  7  9  1  0  0  0
 10 11  1  0  0  0
 10 20  1  0  0  0
 10 21  1  0  0  0
 11 12  2  0  0  0
 11 16  1  0  0  0
 12 13  1  0  0  0
 13 14  2  0  0  0
 14 15  1  0  0  0
 15 16  2  0  0  0
 15 19  1  0  0  0
 16 17  1  0  0  0
 17 18  2  0  0  0
 18 19  1  0  0  0
 22 23  1  0  0  0
 23 24  1  0  0  0
 24 25  2  0  0  0
 24 26  1  0  0  0
 24 27  1  0  0  0
 27 28  1  0  0  0
 28 29  2  0  0  0
 28 30  1  0  0  0
 28 31  1  0  0  0
 31 32  1  0  0  0
 32 33  1  0  0  0
 32 34  1  0  0  0
 32 35  2  0  0  0
M  CHG 1  26  -1
M  CHG 1  30  -1
M  CHG 1  33  -1
M  CHG 1  34  -1
M  END
> <COMPND>
../0-casp/DBelp1.pdb

> <AUTHOR>
GENERATED BY OPEN BABEL 3.1.0

> <MASTER>
        0    0    0    0    0    0    0    0   35    0   35    0

> <minimizedAffinity>
-9.00156

> <CNNscore>
0.2269934267

> <CNNaffinity>
4.3244428635

> <CNN_VS>
0.9816201329

> <CNNaffinity_variance>
0.6631504893

$$$$



 35 37  0  0  0  0  0  0  0  0999 V2000
  -22.3289  -13.8446  -10.0359 C   0  0  0  0  0  0  0  0  0  0  0  0
  -20.9249  -13.9839   -9.9555 O   0  0  0  0  0  0  0  0  0  0  0  0
  -20.3649  -13.2913  -11.0478 C   0  0  0  0  0  0  0  0  0  0  0  0
  -21.3617  -12.2301  -11.4957 C   0  0  0  0  0  0  0  0  0  0  0  0
  -21.2440  -11.9557  -12.8672 O   0  0  0  0  0  0  0  0  0  0  0  0
  -22.6886  -12.8699  -11.1620 C   0  0  0  0  0  0  0  0  0  0  0  0
  -23.1967  -13.5877  -12.2601 O   0  0  0  0  0  0  0  0  0  0  0  0
  -20.4588  -11.3575  -12.9711 H   0  0  0  0  0  0  0  0  0  0  0  0
  -23.6990  -12.9389  -12.8197 H   0  0  0  0  0  0  0  0  0  0  0  0
  -25.3869  -12.4440   -4.9534 N   0  0  0  0  0  0  0  0  0  0  0  0
  -25.3085  -12.9704   -6.2786 C   0  0  0  0  0  0  0  0  0  0  0  0
  -26.4204  -13.4758   -6.8905 N   0  0  0  0  0  0  0  0  0  0  0  0
  -26.3665  -13.9790   -8.1655 C   0  0  0  0  0  0  0  0  0  0  0  0
  -25.1897  -13.9813   -8.8606 N   0  0  0  0  0  0  0  0  0  0  0  0
  -24.0910  -13.4779   -8.2521 C   0  0  0  0  0  0  0  0  0  0  0  0
  -24.1171  -12.9764   -6.9958 C   0  0  0  0  0  0  0  0  0  0  0  0
  -22.8970  -12.5407   -6.6338 N   0  0  0  0  0  0  0  0  0  0  0  0
  -22.1435  -12.8042   -7.7381 C   0  0  0  0  0  0  0  0  0  0  0  0
  -22.8529  -13.3658   -8.7534 N   0  0  0  0  0  0  0  0  0  0  0  0
  -24.5421  -12.0426   -4.4832 H   0  0  0  0  0  0  0  0  0  0  0  0
  -26.2919  -12.4642   -4.4332 H   0  0  0  0  0  0  0  0  0  0  0  0
  -19.0183  -12.6826  -10.6449 C   0  0  0  0  0  0  0  0  0  0  0  0
  -19.2348  -11.6782   -9.6819 O   0  0  0  0  0  0  0  0  0  0  0  0
  -18.4615  -10.2495  -10.2016 P   0  0  0  0  0  0  0  0  0  0  0  0
  -19.3592   -9.0601   -9.9419 O   0  0  0  0  0  0  0  0  0  0  0  0
  -18.1847  -10.3499  -11.8686 O   0  0  0  0  0  0  0  0  0  0  0  0
  -16.9952  -10.0207   -9.3639 O   0  0  0  0  0  0  0  0  0  0  0  0
  -15.9472   -9.1469  -10.3824 P   0  0  0  0  0  0  0  0  0  0  0  0
  -15.3770  -10.0780  -11.4306 O   0  0  0  0  0  0  0  0  0  0  0  0
  -16.8565   -7.9454  -11.1527 O   0  0  0  0  0  0  0  0  0  0  0  0
  -14.6908   -8.4419   -9.4700 O   0  0  0  0  0  0  0  0  0  0  0  0
  -13.4801   -7.8930  -10.5389 P   0  0  0  0  0  0  0  0  0  0  0  0
  -12.4687   -9.1993  -10.9019 O   0  0  0  0  0  0  0  0  0  0  0  0
  -14.1273   -7.3035  -11.9899 O   0  0  0  0  0  0  0  0  0  0  0  0
  -12.5317   -6.6576   -9.7892 S   0  0  0  0  0  0  0  0  0  0  0  0
  1 19  1  0  0  0
  1  2  1  0  0  0
  1  6  1  0  0  0
  2  3  1  0  0  0
  3 22  1  0  0  0
  3  4  1  0  0  0
  4  5  1  0  0  0
  4  6  1  0  0  0
  5  8  1  0  0  0
  6  7  1  0  0  0
  7  9  1  0  0  0
 10 11  1  0  0  0
 10 20  1  0  0  0
 10 21  1  0  0  0
 11 12  2  0  0  0
 11 16  1  0  0  0
 12 13  1  0  0  0
 13 14  2  0  0  0
 14 15  1  0  0  0
 15 16  2  0  0  0
 15 19  1  0  0  0
 16 17  1  0  0  0
 17 18  2  0  0  0
 18 19  1  0  0  0
 22 23  1  0  0  0
 23 24  1  0  0  0
 24 25  2  0  0  0
 24 26  1  0  0  0
 24 27  1  0  0  0
 27 28  1  0  0  0
 28 29  2  0  0  0
 28 30  1  0  0  0
 28 31  1  0  0  0
 31 32  1  0  0  0
 32 33  1  0  0  0
 32 34  1  0  0  0
 32 35  2  0  0  0
M  CHG 1  26  -1
M  CHG 1  30  -1
M  CHG 1  33  -1
M  CHG 1  34  -1
M  END
> <COMPND>
../0-casp/DBelp1.pdb

> <AUTHOR>
GENERATED BY OPEN BABEL 3.1.0

> <MASTER>
        0    0    0    0    0    0    0    0   35    0   35    0

> <minimizedAffinity>
-8.72465

> <CNNscore>
0.1961094886

> <CNNaffinity>
4.3462491035

> <CNN_VS>
0.8523406982

> <CNNaffinity_variance>
0.6352540255

$$$$



 35 37  0  0  0  0  0  0  0  0999 V2000
  -20.2363  -12.2142   -9.6556 C   0  0  0  0  0  0  0  0  0  0  0  0
  -20.1722  -12.9823   -8.4711 O   0  0  0  0  0  0  0  0  0  0  0  0
  -19.8189  -12.1138   -7.4188 C   0  0  0  0  0  0  0  0  0  0  0  0
  -20.2232  -10.7001   -7.8169 C   0  0  0  0  0  0  0  0  0  0  0  0
  -19.3915   -9.7377   -7.2235 O   0  0  0  0  0  0  0  0  0  0  0  0
  -20.0674  -10.7290   -9.3190 C   0  0  0  0  0  0  0  0  0  0  0  0
  -18.7832  -10.3030   -9.7046 O   0  0  0  0  0  0  0  0  0  0  0  0
  -19.7006   -9.6338   -6.2860 H   0  0  0  0  0  0  0  0  0  0  0  0
  -18.8168   -9.3126   -9.7701 H   0  0  0  0  0  0  0  0  0  0  0  0
  -25.9344  -12.3854  -11.8112 N   0  0  0  0  0  0  0  0  0  0  0  0
  -24.9559  -11.9832  -10.8519 C   0  0  0  0  0  0  0  0  0  0  0  0
  -25.3127  -11.2216   -9.7754 N   0  0  0  0  0  0  0  0  0  0  0  0
  -24.3885  -10.8315   -8.8397 C   0  0  0  0  0  0  0  0  0  0  0  0
  -23.0791  -11.2039   -8.9617 N   0  0  0  0  0  0  0  0  0  0  0  0
  -22.7299  -11.9599  -10.0280 C   0  0  0  0  0  0  0  0  0  0  0  0
  -23.6213  -12.3573  -10.9650 C   0  0  0  0  0  0  0  0  0  0  0  0
  -23.0163  -13.0977  -11.9112 N   0  0  0  0  0  0  0  0  0  0  0  0
  -21.7209  -13.1247  -11.4895 C   0  0  0  0  0  0  0  0  0  0  0  0
  -21.5178  -12.4474  -10.3279 N   0  0  0  0  0  0  0  0  0  0  0  0
  -25.6710  -12.9803  -12.6313 H   0  0  0  0  0  0  0  0  0  0  0  0
  -26.9272  -12.0790  -11.7085 H   0  0  0  0  0  0  0  0  0  0  0  0
  -20.4980  -12.5628   -6.1213 C   0  0  0  0  0  0  0  0  0  0  0  0
  -19.5884  -13.3253   -5.3635 O   0  0  0  0  0  0  0  0  0  0  0  0
  -18.6848  -12.2700   -4.3741 P   0  0  0  0  0  0  0  0  0  0  0  0
  -19.2755  -10.8789   -4.4388 O   0  0  0  0  0  0  0  0  0  0  0  0
  -17.0963  -12.1980   -4.9545 O   0  0  0  0  0  0  0  0  0  0  0  0
  -18.7070  -12.7982   -2.7540 O   0  0  0  0  0  0  0  0  0  0  0  0
  -18.1781  -14.4166   -2.7292 P   0  0  0  0  0  0  0  0  0  0  0  0
  -19.2927  -15.3145   -3.2213 O   0  0  0  0  0  0  0  0  0  0  0  0
  -16.8620  -14.5473   -3.7849 O   0  0  0  0  0  0  0  0  0  0  0  0
  -17.7136  -14.8606   -1.1496 O   0  0  0  0  0  0  0  0  0  0  0  0
  -17.1163  -13.4792   -0.3465 P   0  0  0  0  0  0  0  0  0  0  0  0
  -16.0177  -12.7077   -1.3755 O   0  0  0  0  0  0  0  0  0  0  0  0
  -18.3476  -12.3796    0.0362 O   0  0  0  0  0  0  0  0  0  0  0  0
  -16.2853  -13.9367    1.0985 S   0  0  0  0  0  0  0  0  0  0  0  0
  1 19  1  0  0  0
  1  2  1  0  0  0
  1  6  1  0  0  0
  2  3  1  0  0  0
  3 22  1  0  0  0
  3  4  1  0  0  0
  4  5  1  0  0  0
  4  6  1  0  0  0
  5  8  1  0  0  0
  6  7  1  0  0  0
  7  9  1  0  0  0
 10 11  1  0  0  0
 10 20  1  0  0  0
 10 21  1  0  0  0
 11 12  2  0  0  0
 11 16  1  0  0  0
 12 13  1  0  0  0
 13 14  2  0  0  0
 14 15  1  0  0  0
 15 16  2  0  0  0
 15 19  1  0  0  0
 16 17  1  0  0  0
 17 18  2  0  0  0
 18 19  1  0  0  0
 22 23  1  0  0  0
 23 24  1  0  0  0
 24 25  2  0  0  0
 24 26  1  0  0  0
 24 27  1  0  0  0
 27 28  1  0  0  0
 28 29  2  0  0  0
 28 30  1  0  0  0
 28 31  1  0  0  0
 31 32  1  0  0  0
 32 33  1  0  0  0
 32 34  1  0  0  0
 32 35  2  0  0  0
M  CHG 1  26  -1
M  CHG 1  30  -1
M  CHG 1  33  -1
M  CHG 1  34  -1
M  END
> <COMPND>
../0-casp/DBelp1.pdb

> <AUTHOR>
GENERATED BY OPEN BABEL 3.1.0

> <MASTER>
        0    0    0    0    0    0    0    0   35    0   35    0

> <minimizedAffinity>
-9.15272

> <CNNscore>
0.1889863014

> <CNNaffinity>
4.3597340584

> <CNN_VS>
0.8239300251

> <CNNaffinity_variance>
0.2962770164

$$$$



 35 37  0  0  0  0  0  0  0  0999 V2000
  -21.6406  -13.6178   -9.8637 C   0  0  0  0  0  0  0  0  0  0  0  0
  -21.0471  -14.5520   -8.9849 O   0  0  0  0  0  0  0  0  0  0  0  0
  -19.6501  -14.3826   -9.0634 C   0  0  0  0  0  0  0  0  0  0  0  0
  -19.3724  -12.9645   -9.5453 C   0  0  0  0  0  0  0  0  0  0  0  0
  -18.1662  -12.8874  -10.2589 O   0  0  0  0  0  0  0  0  0  0  0  0
  -20.5662  -12.6816  -10.4263 C   0  0  0  0  0  0  0  0  0  0  0  0
  -20.3010  -13.0217  -11.7654 O   0  0  0  0  0  0  0  0  0  0  0  0
  -17.4376  -12.8725   -9.5850 H   0  0  0  0  0  0  0  0  0  0  0  0
  -19.8620  -12.2334  -12.1805 H   0  0  0  0  0  0  0  0  0  0  0  0
  -26.5130  -10.5928   -7.8014 N   0  0  0  0  0  0  0  0  0  0  0  0
  -25.7508  -11.2049   -8.8425 C   0  0  0  0  0  0  0  0  0  0  0  0
  -26.2123  -11.2098  -10.1283 N   0  0  0  0  0  0  0  0  0  0  0  0
  -25.4912  -11.7863  -11.1429 C   0  0  0  0  0  0  0  0  0  0  0  0
  -24.2814  -12.3692  -10.8889 N   0  0  0  0  0  0  0  0  0  0  0  0
  -23.8266  -12.3605   -9.6146 C   0  0  0  0  0  0  0  0  0  0  0  0
  -24.5181  -11.7996   -8.5961 C   0  0  0  0  0  0  0  0  0  0  0  0
  -23.8436  -11.9254   -7.4391 N   0  0  0  0  0  0  0  0  0  0  0  0
  -22.7142  -12.5859   -7.8195 C   0  0  0  0  0  0  0  0  0  0  0  0
  -22.6689  -12.8531   -9.1522 N   0  0  0  0  0  0  0  0  0  0  0  0
  -26.1595  -10.5732   -6.8163 H   0  0  0  0  0  0  0  0  0  0  0  0
  -27.4418  -10.1651   -8.0127 H   0  0  0  0  0  0  0  0  0  0  0  0
  -19.0131  -14.6618   -7.6986 C   0  0  0  0  0  0  0  0  0  0  0  0
  -20.0302  -14.8214   -6.7379 O   0  0  0  0  0  0  0  0  0  0  0  0
  -19.4610  -14.2371   -5.2399 P   0  0  0  0  0  0  0  0  0  0  0  0
  -17.9648  -14.4401   -5.1483 O   0  0  0  0  0  0  0  0  0  0  0  0
  -20.1921  -15.1181   -3.9930 O   0  0  0  0  0  0  0  0  0  0  0  0
  -19.7980  -12.5746   -5.0758 O   0  0  0  0  0  0  0  0  0  0  0  0
  -18.6797  -11.9260   -3.9676 P   0  0  0  0  0  0  0  0  0  0  0  0
  -17.4539  -11.4483   -4.7159 O   0  0  0  0  0  0  0  0  0  0  0  0
  -19.4107  -10.6011   -3.2101 O   0  0  0  0  0  0  0  0  0  0  0  0
  -18.2468  -13.1019   -2.8110 O   0  0  0  0  0  0  0  0  0  0  0  0
  -17.5974  -12.3126   -1.4453 P   0  0  0  0  0  0  0  0  0  0  0  0
  -16.3223  -11.3296   -1.9639 O   0  0  0  0  0  0  0  0  0  0  0  0
  -18.7414  -11.3326   -0.6689 O   0  0  0  0  0  0  0  0  0  0  0  0
  -16.9753  -13.4697   -0.3218 S   0  0  0  0  0  0  0  0  0  0  0  0
  1 19  1  0  0  0
  1  2  1  0  0  0
  1  6  1  0  0  0
  2  3  1  0  0  0
  3 22  1  0  0  0
  3  4  1  0  0  0
  4  5  1  0  0  0
  4  6  1  0  0  0
  5  8  1  0  0  0
  6  7  1  0  0  0
  7  9  1  0  0  0
 10 11  1  0  0  0
 10 20  1  0  0  0
 10 21  1  0  0  0
 11 12  2  0  0  0
 11 16  1  0  0  0
 12 13  1  0  0  0
 13 14  2  0  0  0
 14 15  1  0  0  0
 15 16  2  0  0  0
 15 19  1  0  0  0
 16 17  1  0  0  0
 17 18  2  0  0  0
 18 19  1  0  0  0
 22 23  1  0  0  0
 23 24  1  0  0  0
 24 25  2  0  0  0
 24 26  1  0  0  0
 24 27  1  0  0  0
 27 28  1  0  0  0
 28 29  2  0  0  0
 28 30  1  0  0  0
 28 31  1  0  0  0
 31 32  1  0  0  0
 32 33  1  0  0  0
 32 34  1  0  0  0
 32 35  2  0  0  0
M  CHG 1  26  -1
M  CHG 1  30  -1
M  CHG 1  33  -1
M  CHG 1  34  -1
M  END
> <COMPND>
../0-casp/DBelp1.pdb

> <AUTHOR>
GENERATED BY OPEN BABEL 3.1.0

> <MASTER>
        0    0    0    0    0    0    0    0   35    0   35    0

> <minimizedAffinity>
-8.58060

> <CNNscore>
0.1880891025

> <CNNaffinity>
4.4267854691

> <CNN_VS>
0.8326300979

> <CNNaffinity_variance>
0.3436519802

$$$$



 35 37  0  0  0  0  0  0  0  0999 V2000
  -21.4384  -11.8596  -10.9048 C   0  0  0  0  0  0  0  0  0  0  0  0
  -21.8646  -11.2327   -9.7121 O   0  0  0  0  0  0  0  0  0  0  0  0
  -22.6877  -12.1451   -9.0218 C   0  0  0  0  0  0  0  0  0  0  0  0
  -22.3220  -13.5512   -9.4797 C   0  0  0  0  0  0  0  0  0  0  0  0
  -23.4190  -14.4232   -9.3991 O   0  0  0  0  0  0  0  0  0  0  0  0
  -21.8874  -13.3245  -10.9083 C   0  0  0  0  0  0  0  0  0  0  0  0
  -22.9654  -13.4833  -11.7983 O   0  0  0  0  0  0  0  0  0  0  0  0
  -23.5054  -14.6842   -8.4453 H   0  0  0  0  0  0  0  0  0  0  0  0
  -23.0198  -14.4513  -12.0137 H   0  0  0  0  0  0  0  0  0  0  0  0
  -15.5135  -10.4415  -11.0744 N   0  0  0  0  0  0  0  0  0  0  0  0
  -16.8970  -10.0926  -11.0125 C   0  0  0  0  0  0  0  0  0  0  0  0
  -17.2793   -8.7826  -10.9509 N   0  0  0  0  0  0  0  0  0  0  0  0
  -18.6033   -8.4275  -10.8981 C   0  0  0  0  0  0  0  0  0  0  0  0
  -19.5786   -9.3848  -10.9115 N   0  0  0  0  0  0  0  0  0  0  0  0
  -19.1962  -10.6811  -10.9746 C   0  0  0  0  0  0  0  0  0  0  0  0
  -17.8979  -11.0579  -11.0269 C   0  0  0  0  0  0  0  0  0  0  0  0
  -17.7951  -12.3978  -11.0870 N   0  0  0  0  0  0  0  0  0  0  0  0
  -19.0968  -12.8004  -11.0717 C   0  0  0  0  0  0  0  0  0  0  0  0
  -19.9800  -11.7677  -11.0183 N   0  0  0  0  0  0  0  0  0  0  0  0
  -15.2135  -11.4426  -11.1355 H   0  0  0  0  0  0  0  0  0  0  0  0
  -14.7825   -9.6965  -11.0487 H   0  0  0  0  0  0  0  0  0  0  0  0
  -22.5109  -11.9676   -7.5108 C   0  0  0  0  0  0  0  0  0  0  0  0
  -21.9737  -13.1499   -6.9662 O   0  0  0  0  0  0  0  0  0  0  0  0
  -20.5225  -12.7662   -6.1562 P   0  0  0  0  0  0  0  0  0  0  0  0
  -20.6222  -11.3795   -5.5602 O   0  0  0  0  0  0  0  0  0  0  0  0
  -19.2513  -12.7718   -7.2740 O   0  0  0  0  0  0  0  0  0  0  0  0
  -20.2217  -13.8798   -4.9017 O   0  0  0  0  0  0  0  0  0  0  0  0
  -18.6606  -13.5695   -4.2965 P   0  0  0  0  0  0  0  0  0  0  0  0
  -17.6563  -14.4195   -5.0445 O   0  0  0  0  0  0  0  0  0  0  0  0
  -18.3126  -11.9369   -4.5746 O   0  0  0  0  0  0  0  0  0  0  0  0
  -18.5976  -13.9099   -2.6267 O   0  0  0  0  0  0  0  0  0  0  0  0
  -16.9632  -14.0420   -2.1568 P   0  0  0  0  0  0  0  0  0  0  0  0
  -16.4794  -15.6466   -2.3849 O   0  0  0  0  0  0  0  0  0  0  0  0
  -15.9498  -13.0455   -3.0797 O   0  0  0  0  0  0  0  0  0  0  0  0
  -16.7857  -13.6489   -0.4829 S   0  0  0  0  0  0  0  0  0  0  0  0
  1 19  1  0  0  0
  1  2  1  0  0  0
  1  6  1  0  0  0
  2  3  1  0  0  0
  3 22  1  0  0  0
  3  4  1  0  0  0
  4  5  1  0  0  0
  4  6  1  0  0  0
  5  8  1  0  0  0
  6  7  1  0  0  0
  7  9  1  0  0  0
 10 11  1  0  0  0
 10 20  1  0  0  0
 10 21  1  0  0  0
 11 12  2  0  0  0
 11 16  1  0  0  0
 12 13  1  0  0  0
 13 14  2  0  0  0
 14 15  1  0  0  0
 15 16  2  0  0  0
 15 19  1  0  0  0
 16 17  1  0  0  0
 17 18  2  0  0  0
 18 19  1  0  0  0
 22 23  1  0  0  0
 23 24  1  0  0  0
 24 25  2  0  0  0
 24 26  1  0  0  0
 24 27  1  0  0  0
 27 28  1  0  0  0
 28 29  2  0  0  0
 28 30  1  0  0  0
 28 31  1  0  0  0
 31 32  1  0  0  0
 32 33  1  0  0  0
 32 34  1  0  0  0
 32 35  2  0  0  0
M  CHG 1  26  -1
M  CHG 1  30  -1
M  CHG 1  33  -1
M  CHG 1  34  -1
M  END
> <COMPND>
../0-casp/DBelp1.pdb

> <AUTHOR>
GENERATED BY OPEN BABEL 3.1.0

> <MASTER>
        0    0    0    0    0    0    0    0   35    0   35    0

> <minimizedAffinity>
-9.03099

> <CNNscore>
0.1877030730

> <CNNaffinity>
4.3045763969

> <CNN_VS>
0.8079822063

> <CNNaffinity_variance>
0.4246954024

$$$$
